/*--------------------------------*- C++ -*----------------------------------*\
  =========                 |
  \\      /  F ield         | OpenFOAM: The Open Source CFD Toolbox
   \\    /   O peration     | Website:  https://openfoam.org
    \\  /    A nd           | Version:  9
     \\/     M anipulation  |
\*---------------------------------------------------------------------------*/
FoamFile
{
    format      ascii;
    class       extendedFeatureEdgeMesh;
    location    "constant/extendedFeatureEdgeMesh";
    object      ceiling.extendedFeatureEdgeMesh;
}
// * * * * * * * * * * * * * * * * * * * * * * * * * * * * * * * * * * * * * //

// points

24
(
(1 1 1)
(-1 1 1)
(-1 -1 1)
(1 -1 1)
(1 -1 -1)
(-1 -1 -1)
(-1 1 -1)
(1 1 -1)
(-1355 -1200 2580)
(-1605 -1200 2580)
(-2280 -1700 2580)
(-1605 -950 2580)
(-1605 950 2580)
(-1355 -950 2580)
(-2280 1700 2580)
(-1605 1200 2580)
(-1355 950 2580)
(-1355 1200 2580)
(2280 -1700 2580)
(1180 -0 2580)
(1180 600 2580)
(1780 -0 2580)
(2280 1700 2580)
(1780 600 2580)
)

// edges

56
(
(1 2)
(0 1)
(2 3)
(3 0)
(4 3)
(2 5)
(5 4)
(6 5)
(1 6)
(7 4)
(6 7)
(7 0)
(2 0)
(2 4)
(1 5)
(4 6)
(3 7)
(0 6)
(9 10)
(10 8)
(11 10)
(12 11)
(13 12)
(14 11)
(12 14)
(15 14)
(13 16)
(17 14)
(18 8)
(8 19)
(19 13)
(18 19)
(19 16)
(16 20)
(20 17)
(18 21)
(23 22)
(22 20)
(21 22)
(22 17)
(8 9)
(9 11)
(11 13)
(14 10)
(12 15)
(16 12)
(15 17)
(10 18)
(13 8)
(17 16)
(19 20)
(21 19)
(20 23)
(23 21)
(18 22)
(22 14)
)

// concaveStart mixedStart nonFeatureStart
0 0 24
// internalStart flatStart openStart multipleStart
12 12 40 56
// normals

32
(
(0 0 1)
(0 0 1)
(0 0 1)
(0 0 1)
(0 0 1)
(0 0 1)
(0 0 1)
(0 0 1)
(0 0 1)
(0 0 1)
(0 0 1)
(0 0 1)
(0 0 1)
(0 0 1)
(0 0 1)
(0 0 1)
(0 0 1)
(-1 0 0)
(0 1 0)
(0 0 1)
(0 -1 0)
(1 0 -0)
(1 0 0)
(0 -1 0)
(0 0 -1)
(-1 0 0)
(0 0 -1)
(0 1 0)
(0 0 1)
(0 0 1)
(0 0 1)
(0 0 1)
)

// normal volume types

32
(
0
0
0
0
0
0
0
0
0
0
0
0
0
0
0
0
0
0
0
0
0
0
0
0
0
0
0
0
0
0
0
0
)

// normalDirections

56
(
2(1 -1)
2(1 -1)
2(1 -1)
2(1 -1)
2(1 -1)
2(1 -1)
2(1 -1)
2(1 -1)
2(1 -1)
2(1 -1)
2(1 -1)
2(1 -1)
2(1 -1)
2(1 -1)
2(1 -1)
2(1 -1)
2(1 -1)
2(1 -1)
2(1 -1)
2(1 -1)
2(1 -1)
2(1 -1)
2(1 -1)
2(1 -1)
2(1 -1)
2(1 -1)
2(1 -1)
2(1 -1)
2(1 -1)
2(1 -1)
2(1 -1)
2(1 -1)
2(1 -1)
2(1 -1)
2(1 -1)
2(1 -1)
2(1 -1)
2(1 -1)
2(1 -1)
2(1 -1)
1(1)
1(1)
1(1)
1(1)
1(1)
1(1)
1(1)
1(1)
1(1)
1(1)
1(1)
1(1)
1(1)
1(1)
1(1)
1(1)
)

// edgeNormals

56
(
2(16 17)
2(16 18)
2(19 20)
2(19 21)
2(20 22)
2(23 17)
2(23 24)
2(25 24)
2(25 18)
2(26 22)
2(26 27)
2(21 27)
2(16 19)
2(20 23)
2(17 25)
2(26 24)
2(21 22)
2(18 27)
2(0 1)
2(0 7)
2(1 3)
2(2 28)
2(2 5)
2(28 3)
2(28 4)
2(4 6)
2(5 29)
2(6 15)
2(7 30)
2(8 30)
2(8 29)
2(30 11)
2(29 10)
2(9 10)
2(9 31)
2(11 14)
2(12 13)
2(12 31)
2(13 14)
2(31 15)
1(0)
1(1)
1(2)
1(3)
1(4)
1(5)
1(6)
1(7)
1(8)
1(9)
1(10)
1(11)
1(12)
1(13)
1(14)
1(15)
)

// featurePointNormals

24
(
3(16 18 21)
3(16 17 18)
3(16 17 20)
3(19 20 21)
3(20 22 24)
3(23 17 24)
3(25 24 18)
3(26 22 27)
1(0)
1(0)
1(0)
1(1)
1(2)
1(2)
1(28)
1(4)
1(5)
1(6)
1(7)
1(8)
1(9)
1(11)
1(12)
1(12)
)

// featurePointEdges

24
(
5(12 3 11 17 1)
4(0 14 8 1)
5(12 2 13 5 0)
4(2 4 16 3)
5(13 6 15 9 4)
4(5 14 7 6)
5(7 15 10 17 8)
4(9 16 11 10)
5(19 28 29 40 48)
3(18 40 41)
5(18 19 20 43 47)
5(20 21 23 41 42)
5(21 22 24 44 45)
5(22 26 30 42 48)
6(23 24 25 27 43 55)
3(25 44 46)
5(26 32 33 45 49)
5(27 34 39 46 49)
5(28 31 35 47 54)
6(29 30 31 32 50 51)
5(33 34 37 50 52)
4(35 38 51 53)
6(36 37 38 39 54 55)
3(36 52 53)
)

// regionEdges

16
(
40
41
42
43
44
45
46
47
48
49
50
51
52
53
54
55
)



// ************************************************************************* //
