/*--------------------------------*- C++ -*----------------------------------*\
  =========                 |
  \\      /  F ield         | OpenFOAM: The Open Source CFD Toolbox
   \\    /   O peration     | Website:  https://openfoam.org
    \\  /    A nd           | Version:  9
     \\/     M anipulation  |
\*---------------------------------------------------------------------------*/
FoamFile
{
    format      ascii;
    class       extendedFeatureEdgeMesh;
    location    "constant/extendedFeatureEdgeMesh";
    object      columns.extendedFeatureEdgeMesh;
}
// * * * * * * * * * * * * * * * * * * * * * * * * * * * * * * * * * * * * * //

// points

32
(
(-2080 1500 0)
(-2080 1600 0)
(-2080 1500 2580)
(-2080 1600 2580)
(-2180 1500 0)
(-2180 1500 2580)
(-2080 -1600 0)
(-2080 -1500 0)
(-2080 -1600 2580)
(-2080 -1500 2580)
(-2180 -1600 0)
(-2180 -1600 2580)
(2080 -1600 0)
(2180 -1600 0)
(2080 -1600 2580)
(2180 -1600 2580)
(2180 -1500 0)
(2180 -1500 2580)
(2180 1500 0)
(2180 1600 0)
(2180 1500 2580)
(2180 1600 2580)
(2080 1500 0)
(2080 1500 2580)
(2080 -1500 0)
(2080 -1500 2580)
(2080 1600 0)
(2080 1600 2580)
(-2180 -1500 0)
(-2180 -1500 2580)
(-2180 1600 0)
(-2180 1600 2580)
)

// edges

64
(
(2 0)
(1 3)
(5 4)
(8 6)
(7 9)
(11 10)
(14 12)
(13 15)
(16 17)
(20 18)
(19 21)
(23 22)
(25 24)
(27 26)
(29 28)
(31 30)
(1 2)
(0 5)
(7 8)
(6 11)
(13 14)
(16 15)
(19 20)
(18 23)
(12 25)
(22 27)
(10 29)
(4 31)
(24 17)
(26 21)
(30 3)
(28 9)
(0 1)
(3 2)
(4 0)
(2 5)
(6 7)
(9 8)
(10 6)
(8 11)
(12 13)
(15 14)
(13 16)
(17 15)
(18 19)
(21 20)
(22 18)
(20 23)
(24 12)
(14 25)
(26 22)
(23 27)
(28 10)
(11 29)
(30 4)
(5 31)
(16 24)
(25 17)
(19 26)
(27 21)
(1 30)
(31 3)
(7 28)
(29 9)
)

// concaveStart mixedStart nonFeatureStart
0 0 32
// internalStart flatStart openStart multipleStart
16 16 32 64
// normals

32
(
(1 0 0)
(1 -0 0)
(0 -1 0)
(0 -1 0)
(1 0 0)
(1 -0 0)
(0 -1 0)
(0 -1 0)
(0 -1 0)
(0 -1 0)
(1 0 0)
(1 -0 0)
(1 0 0)
(1 -0 0)
(0 -1 0)
(0 -1 0)
(-1 0 0)
(-1 -0 0)
(-1 0 0)
(-1 -0 0)
(-1 0 0)
(-1 -0 0)
(-1 0 0)
(-1 -0 0)
(0 1 -0)
(0 1 0)
(0 1 -0)
(0 1 0)
(0 1 -0)
(0 1 0)
(0 1 -0)
(0 1 0)
)

// normal volume types

32
(
0
0
0
0
0
0
0
0
0
0
0
0
0
0
0
0
0
0
0
0
0
0
0
0
0
0
0
0
0
0
0
0
)

// normalDirections

64
(
2(1 -1)
2(1 -1)
2(1 -1)
2(1 -1)
2(1 -1)
2(1 -1)
2(1 -1)
2(1 -1)
2(1 -1)
2(1 -1)
2(1 -1)
2(1 -1)
2(1 -1)
2(1 -1)
2(1 -1)
2(1 -1)
2(1 -1)
2(1 -1)
2(1 -1)
2(1 -1)
2(1 -1)
2(1 -1)
2(1 -1)
2(1 -1)
2(1 -1)
2(1 -1)
2(1 -1)
2(1 -1)
2(1 -1)
2(1 -1)
2(1 -1)
2(1 -1)
1(1)
1(1)
1(1)
1(1)
1(1)
1(1)
1(1)
1(1)
1(1)
1(1)
1(1)
1(1)
1(1)
1(1)
1(1)
1(1)
1(1)
1(1)
1(1)
1(1)
1(1)
1(1)
1(1)
1(1)
1(1)
1(1)
1(1)
1(1)
1(1)
1(1)
1(1)
1(1)
)

// edgeNormals

64
(
2(0 3)
2(1 28)
2(2 23)
2(4 7)
2(5 30)
2(6 21)
2(8 17)
2(9 10)
2(11 24)
2(12 15)
2(13 26)
2(14 19)
2(16 25)
2(18 27)
2(20 31)
2(22 29)
2(0 1)
2(2 3)
2(4 5)
2(6 7)
2(8 9)
2(10 11)
2(12 13)
2(14 15)
2(16 17)
2(18 19)
2(20 21)
2(22 23)
2(24 25)
2(26 27)
2(28 29)
2(30 31)
1(0)
1(1)
1(2)
1(3)
1(4)
1(5)
1(6)
1(7)
1(8)
1(9)
1(10)
1(11)
1(12)
1(13)
1(14)
1(15)
1(16)
1(17)
1(18)
1(19)
1(20)
1(21)
1(22)
1(23)
1(24)
1(25)
1(26)
1(27)
1(28)
1(29)
1(30)
1(31)
)

// featurePointNormals

32
(
2(0 3)
2(1 28)
2(0 3)
2(1 28)
2(2 23)
2(2 23)
2(4 7)
2(5 30)
2(4 7)
2(5 30)
2(6 21)
2(6 21)
2(8 17)
2(9 10)
2(8 17)
2(9 10)
2(11 24)
2(11 24)
2(12 15)
2(13 26)
2(12 15)
2(13 26)
2(14 19)
2(14 19)
2(16 25)
2(16 25)
2(18 27)
2(18 27)
2(20 31)
2(20 31)
2(22 29)
2(22 29)
)

// featurePointEdges

32
(
4(0 17 32 34)
4(16 1 32 60)
4(16 0 33 35)
4(1 30 33 61)
4(2 27 34 54)
4(17 2 35 55)
4(3 19 36 38)
4(18 4 36 62)
4(18 3 37 39)
4(4 31 37 63)
4(5 26 38 52)
4(19 5 39 53)
4(6 24 40 48)
4(20 7 40 42)
4(20 6 41 49)
4(7 21 41 43)
4(21 8 42 56)
4(8 28 43 57)
4(9 23 44 46)
4(22 10 44 58)
4(22 9 45 47)
4(10 29 45 59)
4(11 25 46 50)
4(23 11 47 51)
4(12 28 48 56)
4(24 12 49 57)
4(13 29 50 58)
4(25 13 51 59)
4(14 31 52 62)
4(26 14 53 63)
4(15 30 54 60)
4(27 15 55 61)
)

// regionEdges

32
(
32
33
34
35
36
37
38
39
40
41
42
43
44
45
46
47
48
49
50
51
52
53
54
55
56
57
58
59
60
61
62
63
)



// ************************************************************************* //
