/*--------------------------------*- C++ -*----------------------------------*\
  =========                 |
  \\      /  F ield         | OpenFOAM: The Open Source CFD Toolbox
   \\    /   O peration     | Website:  https://openfoam.org
    \\  /    A nd           | Version:  9
     \\/     M anipulation  |
\*---------------------------------------------------------------------------*/
FoamFile
{
    format      ascii;
    class       extendedFeatureEdgeMesh;
    location    "constant/extendedFeatureEdgeMesh";
    object      emission_surface.extendedFeatureEdgeMesh;
}
// * * * * * * * * * * * * * * * * * * * * * * * * * * * * * * * * * * * * * //

// points

12
(
(1 1 1)
(-1 1 1)
(-1 -1 1)
(1 -1 1)
(1 -1 -1)
(-1 -1 -1)
(-1 1 -1)
(1 1 -1)
(-1000 -1000 0)
(1000 -1000 0)
(1000 1000 0)
(-1000 1000 0)
)

// edges

23
(
(1 2)
(0 1)
(2 3)
(3 0)
(4 3)
(2 5)
(5 4)
(6 5)
(1 6)
(7 4)
(6 7)
(7 0)
(2 0)
(2 4)
(1 5)
(4 6)
(3 7)
(0 6)
(10 8)
(8 9)
(9 10)
(11 8)
(10 11)
)

// concaveStart mixedStart nonFeatureStart
0 0 12
// internalStart flatStart openStart multipleStart
12 12 19 23
// normals

14
(
(0 0 1)
(-0 0 1)
(0 0 1)
(-1 0 0)
(0 1 0)
(0 0 1)
(0 -1 0)
(1 0 -0)
(1 0 0)
(0 -1 0)
(0 0 -1)
(-1 0 0)
(0 0 -1)
(0 1 0)
)

// normal volume types

14
(
0
0
0
0
0
0
0
0
0
0
0
0
0
0
)

// normalDirections

23
(
2(1 -1)
2(1 -1)
2(1 -1)
2(1 -1)
2(1 -1)
2(1 -1)
2(1 -1)
2(1 -1)
2(1 -1)
2(1 -1)
2(1 -1)
2(1 -1)
2(1 -1)
2(1 -1)
2(1 -1)
2(1 -1)
2(1 -1)
2(1 -1)
2(1 -1)
1(1)
1(1)
1(1)
1(1)
)

// edgeNormals

23
(
2(2 3)
2(2 4)
2(5 6)
2(5 7)
2(6 8)
2(9 3)
2(9 10)
2(11 10)
2(11 4)
2(12 8)
2(12 13)
2(7 13)
2(2 5)
2(6 9)
2(3 11)
2(12 10)
2(7 8)
2(4 13)
2(0 1)
1(0)
1(0)
1(1)
1(1)
)

// featurePointNormals

12
(
3(2 4 7)
3(2 3 4)
3(2 3 6)
3(5 6 7)
3(6 8 10)
3(9 3 10)
3(11 10 4)
3(12 8 13)
1(0)
1(0)
1(0)
1(1)
)

// featurePointEdges

12
(
5(12 3 11 17 1)
4(0 14 8 1)
5(12 2 13 5 0)
4(2 4 16 3)
5(13 6 15 9 4)
4(5 14 7 6)
5(7 15 10 17 8)
4(9 16 11 10)
3(18 19 21)
2(19 20)
3(18 20 22)
2(21 22)
)

// regionEdges
4(19 20 21 22)


// ************************************************************************* //
