/*--------------------------------*- C++ -*----------------------------------*\
  =========                 |
  \\      /  F ield         | OpenFOAM: The Open Source CFD Toolbox
   \\    /   O peration     | Website:  https://openfoam.org
    \\  /    A nd           | Version:  9
     \\/     M anipulation  |
\*---------------------------------------------------------------------------*/
FoamFile
{
    format      ascii;
    class       extendedFeatureEdgeMesh;
    location    "constant/extendedFeatureEdgeMesh";
    object      floor.extendedFeatureEdgeMesh;
}
// * * * * * * * * * * * * * * * * * * * * * * * * * * * * * * * * * * * * * //

// points

12
(
(-2280 1700 0)
(-1000 1000 0)
(-2280 -1700 0)
(-1000 -1000 0)
(1000 -1000 0)
(2280 -1700 0)
(1000 1000 0)
(2275 390 0)
(2280 390 0)
(2275 1325 0)
(2280 1700 0)
(2280 1325 0)
)

// edges

24
(
(1 2)
(0 1)
(3 2)
(4 2)
(4 5)
(7 4)
(6 7)
(7 5)
(6 9)
(9 10)
(6 10)
(10 1)
(2 0)
(1 3)
(3 4)
(5 2)
(4 6)
(7 8)
(8 5)
(9 7)
(10 11)
(11 9)
(0 10)
(6 1)
)

// concaveStart mixedStart nonFeatureStart
0 0 12
// internalStart flatStart openStart multipleStart
0 0 12 24
// normals
12{(0 0 -1)}
// normal volume types

12
(
0
0
0
0
0
0
0
0
0
0
0
0
)

// normalDirections

24
(
2(1 -1)
2(1 -1)
2(1 -1)
2(1 -1)
2(1 -1)
2(1 -1)
2(1 -1)
2(1 -1)
2(1 -1)
2(1 -1)
2(1 -1)
2(1 -1)
1(1)
1(1)
1(1)
1(1)
1(1)
1(1)
1(1)
1(1)
1(1)
1(1)
1(1)
1(1)
)

// edgeNormals

24
(
2(0 1)
2(0 8)
2(1 2)
2(2 3)
2(3 10)
2(4 10)
2(4 6)
2(10 5)
2(6 11)
2(7 11)
2(11 9)
2(8 9)
1(0)
1(1)
1(2)
1(3)
1(4)
1(5)
1(5)
1(6)
1(7)
1(7)
1(8)
1(9)
)

// featurePointNormals

12
(
1(0)
1(0)
1(0)
1(1)
1(2)
1(3)
1(4)
1(4)
1(5)
1(6)
1(7)
1(7)
)

// featurePointEdges

12
(
3(1 12 22)
5(0 1 11 13 23)
5(0 2 3 12 15)
3(2 13 14)
5(3 4 5 14 16)
4(4 7 15 18)
5(6 8 10 16 23)
5(5 6 7 17 19)
2(17 18)
4(8 9 19 21)
5(9 10 11 20 22)
2(20 21)
)

// regionEdges

12
(
12
13
14
15
16
17
18
19
20
21
22
23
)



// ************************************************************************* //
