/*--------------------------------*- C++ -*----------------------------------*\
  =========                 |
  \\      /  F ield         | OpenFOAM: The Open Source CFD Toolbox
   \\    /   O peration     | Website:  https://openfoam.org
    \\  /    A nd           | Version:  9
     \\/     M anipulation  |
\*---------------------------------------------------------------------------*/
FoamFile
{
    format      ascii;
    class       extendedFeatureEdgeMesh;
    location    "constant/extendedFeatureEdgeMesh";
    object      IOLet_R_Man.extendedFeatureEdgeMesh;
}
// * * * * * * * * * * * * * * * * * * * * * * * * * * * * * * * * * * * * * //

// points

37
(
(-5.434 125.519 1697.53)
(-4.242 123.719 1695.72)
(-6.053 125.688 1698.02)
(-1.443 124.872 1694.52)
(-1.439 125.315 1694.75)
(-1.453 123.985 1694.05)
(-1.448 124.428 1694.28)
(-4.964 126.438 1697.67)
(-4.466 126.896 1697.55)
(-3.967 127.355 1697.44)
(-3.085 127.185 1696.76)
(-4.186 121.234 1693.75)
(-4.506 121.184 1694.08)
(-4.826 121.135 1694.42)
(-5.146 121.086 1694.75)
(-6.704 121.374 1696.06)
(-6.424 120.724 1695.52)
(-7.263 122.674 1697.16)
(-6.983 122.024 1696.61)
(-6.923 123.156 1697.22)
(-7.142 124.938 1698.38)
(-6.863 124.287 1697.83)
(-2.48 123.091 1693.96)
(-1.966 123.538 1694.01)
(-3.507 122.196 1693.86)
(-2.993 122.644 1693.91)
(-6.583 123.637 1697.28)
(-5.805 120.555 1695.03)
(-5.465 121.036 1695.08)
(-3.526 121.764 1693.47)
(-3.866 121.283 1693.41)
(-1.818 126.387 1695.54)
(-1.434 125.759 1694.98)
(-2.202 127.015 1696.09)
(-6.907 125.397 1698.44)
(-6.672 125.857 1698.51)
(-5.199 125.979 1697.6)
)

// edges

72
(
(1 2)
(1 7)
(1 9)
(1 11)
(14 1)
(1 16)
(17 1)
(1 27)
(29 1)
(30 1)
(1 33)
(35 1)
(0 1)
(5 1)
(12 1)
(20 1)
(24 1)
(1 26)
(1 28)
(32 1)
(1 4)
(8 1)
(10 1)
(1 18)
(1 21)
(22 1)
(1 34)
(3 1)
(1 6)
(1 13)
(15 1)
(19 1)
(1 23)
(1 25)
(1 31)
(1 36)
(2 0)
(4 3)
(6 5)
(7 8)
(9 10)
(11 12)
(13 14)
(16 15)
(18 17)
(17 19)
(21 20)
(23 22)
(25 24)
(22 25)
(5 23)
(26 21)
(19 26)
(15 18)
(27 16)
(28 27)
(14 28)
(12 13)
(24 29)
(29 30)
(30 11)
(31 32)
(33 31)
(10 33)
(8 9)
(3 6)
(32 4)
(34 35)
(20 34)
(35 2)
(36 7)
(0 36)
)

// concaveStart mixedStart nonFeatureStart
0 0 37
// internalStart flatStart openStart multipleStart
12 20 36 72
// normals

36
(
(-0.477335 0.446303 -0.756944)
(-0.49651 0.40481 -0.767858)
(-0.496522 0.405686 -0.767388)
(-0.533813 0.394213 -0.748091)
(-0.506068 0.399791 -0.764239)
(-0.679443 0.446505 -0.582229)
(-0.677684 0.447266 -0.583693)
(-0.505584 0.419208 -0.754089)
(-0.505478 0.419183 -0.754173)
(-0.506948 0.447873 -0.736487)
(-0.515245 0.412705 -0.75113)
(-0.453334 0.592721 -0.66571)
(-0.453747 0.591929 -0.666133)
(-0.454297 0.59142 -0.66621)
(-0.454026 0.591321 -0.666483)
(-0.515368 0.412416 -0.751205)
(-0.50701 0.447215 -0.736844)
(-0.505408 0.418989 -0.754328)
(-0.493948 0.41153 -0.765937)
(-0.387321 0.375496 -0.842013)
(-0.679406 0.447152 -0.581776)
(-0.677689 0.447264 -0.583689)
(-0.395336 0.626696 -0.671537)
(-0.598499 0.49995 -0.625978)
(-0.677593 0.447593 -0.583548)
(-0.49003 0.392104 -0.77854)
(-0.489565 0.391646 -0.779063)
(-0.505159 0.399686 -0.764896)
(-0.533625 0.394282 -0.748188)
(-0.496531 0.404957 -0.767767)
(-0.496603 0.405104 -0.767643)
(-0.531371 0.383327 -0.755451)
(-0.53195 0.38246 -0.755483)
(-0.479077 0.444592 -0.756851)
(-0.545271 0.387684 -0.743224)
(-0.544646 0.388134 -0.743447)
)

// normal volume types

36
(
0
0
0
0
0
0
0
0
0
0
0
0
0
0
0
0
0
0
0
0
0
0
0
0
0
0
0
0
0
0
0
0
0
0
0
0
)

// normalDirections

72
(
2(1 -1)
2(1 -1)
2(1 -1)
2(1 -1)
2(1 -1)
2(1 -1)
2(1 -1)
2(1 -1)
2(1 -1)
2(1 -1)
2(1 -1)
2(1 -1)
2(1 -1)
2(1 -1)
2(1 -1)
2(1 -1)
2(1 -1)
2(1 -1)
2(1 -1)
2(1 -1)
2(1 -1)
2(1 -1)
2(1 -1)
2(1 -1)
2(1 -1)
2(1 -1)
2(1 -1)
2(1 -1)
2(1 -1)
2(1 -1)
2(1 -1)
2(1 -1)
2(1 -1)
2(1 -1)
2(1 -1)
2(1 -1)
1(1)
1(1)
1(1)
1(1)
1(1)
1(1)
1(1)
1(1)
1(1)
1(1)
1(1)
1(1)
1(1)
1(1)
1(1)
1(1)
1(1)
1(1)
1(1)
1(1)
1(1)
1(1)
1(1)
1(1)
1(1)
1(1)
1(1)
1(1)
1(1)
1(1)
1(1)
1(1)
1(1)
1(1)
1(1)
1(1)
)

// edgeNormals

72
(
2(0 33)
2(3 34)
2(4 28)
2(5 24)
2(6 20)
2(7 18)
2(8 9)
2(18 19)
2(22 23)
2(23 24)
2(26 27)
2(31 33)
2(0 35)
2(2 14)
2(5 21)
2(10 32)
2(12 22)
2(15 16)
2(19 20)
2(25 30)
2(1 30)
2(3 28)
2(4 27)
2(8 17)
2(10 15)
2(11 13)
2(31 32)
2(1 29)
2(2 29)
2(6 21)
2(7 17)
2(9 16)
2(11 14)
2(12 13)
2(25 26)
2(34 35)
1(0)
1(1)
1(2)
1(3)
1(4)
1(5)
1(6)
1(7)
1(8)
1(9)
1(10)
1(11)
1(12)
1(13)
1(14)
1(15)
1(16)
1(17)
1(18)
1(19)
1(20)
1(21)
1(22)
1(23)
1(24)
1(25)
1(26)
1(27)
1(28)
1(29)
1(30)
1(31)
1(32)
1(33)
1(34)
1(35)
)

// featurePointNormals

37
(
2(0 35)

18
(
0
33
3
34
4
5
24
7
18
9
19
22
23
26
31
2
14
10
)

2(0 33)
1(1)
1(1)
2(2 14)
1(2)
2(3 34)
1(3)
2(4 28)
1(4)
2(5 24)
2(5 21)
1(6)
2(6 20)
1(7)
2(7 18)
2(8 9)
1(8)
1(9)
2(10 32)
1(10)
1(11)
1(11)
2(12 22)
1(12)
2(15 16)
2(18 19)
2(19 20)
2(22 23)
2(23 24)
1(25)
2(25 30)
2(26 27)
1(31)
2(31 33)
1(34)
)

// featurePointEdges

37
(
3(12 36 71)

36
(
0
11
26
15
24
17
31
6
23
30
5
7
18
4
29
14
3
9
8
16
33
25
32
13
28
27
20
19
34
10
22
2
21
1
35
12
)

3(0 36 69)
3(27 37 65)
3(20 37 66)
3(13 38 50)
3(28 38 65)
3(1 39 70)
3(21 39 64)
3(2 40 64)
3(22 40 63)
3(3 41 60)
3(14 41 57)
3(29 42 57)
3(4 42 56)
3(30 43 53)
3(5 43 54)
3(6 44 45)
3(23 44 53)
3(31 45 52)
3(15 46 68)
3(24 46 51)
3(25 47 49)
3(32 47 50)
3(16 48 58)
3(33 48 49)
3(17 51 52)
3(7 54 55)
3(18 55 56)
3(8 58 59)
3(9 59 60)
3(34 61 62)
3(19 61 66)
3(10 62 63)
3(26 67 68)
3(11 67 69)
3(35 70 71)
)

// regionEdges

36
(
36
37
38
39
40
41
42
43
44
45
46
47
48
49
50
51
52
53
54
55
56
57
58
59
60
61
62
63
64
65
66
67
68
69
70
71
)



// ************************************************************************* //
