/*--------------------------------*- C++ -*----------------------------------*\
  =========                 |
  \\      /  F ield         | OpenFOAM: The Open Source CFD Toolbox
   \\    /   O peration     | Website:  https://openfoam.org
    \\  /    A nd           | Version:  9
     \\/     M anipulation  |
\*---------------------------------------------------------------------------*/
FoamFile
{
    format      ascii;
    class       extendedFeatureEdgeMesh;
    location    "constant/extendedFeatureEdgeMesh";
    object      IOLet_L_Man.extendedFeatureEdgeMesh;
}
// * * * * * * * * * * * * * * * * * * * * * * * * * * * * * * * * * * * * * //

// points

25
(
(4.864 124.559 1697)
(7.228 121.164 1696.54)
(6.036 121.368 1695.86)
(3.751 122.856 1695.24)
(2.789 122.68 1694.44)
(4.402 121.887 1695.18)
(5.073 121.192 1695.06)
(2.112 123.466 1694.44)
(1.436 124.251 1694.43)
(1.747 125.397 1695.3)
(4.055 128.332 1698.23)
(2.801 129.34 1697.78)
(1.381 129.241 1696.75)
(1.214 128.135 1696.16)
(1.48 126.766 1695.73)
(4.739 127.381 1698.33)
(5.423 126.43 1698.42)
(8.303 120.822 1697.15)
(8.477 121.553 1697.99)
(6.925 125.616 1699.04)
(6.274 126.586 1699.11)
(8.181 122.374 1698.4)
(7.885 123.194 1698.8)
(8.084 124.32 1699.56)
(7.505 124.968 1699.3)
)

// edges

48
(
(0 1)
(4 0)
(6 0)
(0 11)
(10 0)
(0 12)
(17 0)
(0 20)
(19 0)
(2 0)
(0 3)
(0 5)
(8 0)
(9 0)
(0 13)
(16 0)
(0 18)
(0 22)
(0 23)
(7 0)
(14 0)
(0 15)
(0 21)
(0 24)
(1 2)
(3 4)
(5 3)
(2 6)
(6 5)
(4 7)
(7 8)
(8 9)
(11 10)
(12 11)
(13 12)
(9 14)
(14 13)
(15 16)
(10 15)
(18 17)
(17 1)
(20 19)
(16 20)
(21 18)
(22 21)
(23 22)
(24 23)
(19 24)
)

// concaveStart mixedStart nonFeatureStart
0 0 25
// internalStart flatStart openStart multipleStart
9 19 24 48
// normals

24
(
(0.498728 0.447841 -0.742098)
(0.538957 0.408025 -0.736914)
(0.535711 0.410925 -0.737668)
(0.520973 0.450022 -0.725305)
(0.362427 0.481904 -0.797756)
(0.514016 0.437115 -0.73805)
(0.514052 0.437052 -0.738062)
(0.519256 0.421942 -0.743194)
(0.556309 0.362801 -0.747594)
(0.534342 0.356418 -0.76645)
(0.516005 0.341759 -0.785455)
(0.519614 0.346656 -0.780917)
(0.519486 0.346326 -0.781148)
(0.602801 0.361047 -0.71153)
(0.602892 0.361021 -0.711467)
(0.607066 0.53523 -0.587366)
(0.543468 0.472456 -0.69385)
(0.529613 0.40677 -0.744344)
(0.527201 0.408974 -0.744849)
(0.598851 0.517452 -0.611245)
(0.598838 0.517388 -0.611313)
(0.594108 0.372843 -0.712758)
(0.613554 0.251382 -0.748571)
(0.613593 0.251232 -0.748589)
)

// normal volume types

24
(
0
0
0
0
0
0
0
0
0
0
0
0
0
0
0
0
0
0
0
0
0
0
0
0
)

// normalDirections

48
(
2(1 -1)
2(1 -1)
2(1 -1)
2(1 -1)
2(1 -1)
2(1 -1)
2(1 -1)
2(1 -1)
2(1 -1)
2(1 -1)
2(1 -1)
2(1 -1)
2(1 -1)
2(1 -1)
2(1 -1)
2(1 -1)
2(1 -1)
2(1 -1)
2(1 -1)
2(1 -1)
2(1 -1)
2(1 -1)
2(1 -1)
2(1 -1)
1(1)
1(1)
1(1)
1(1)
1(1)
1(1)
1(1)
1(1)
1(1)
1(1)
1(1)
1(1)
1(1)
1(1)
1(1)
1(1)
1(1)
1(1)
1(1)
1(1)
1(1)
1(1)
1(1)
1(1)
)

// edgeNormals

48
(
2(0 16)
2(1 5)
2(3 4)
2(8 9)
2(8 14)
2(9 10)
2(15 16)
2(17 18)
2(17 23)
2(0 3)
2(1 2)
2(2 4)
2(6 7)
2(7 11)
2(10 12)
2(13 18)
2(15 19)
2(20 21)
2(21 22)
2(5 6)
2(11 12)
2(13 14)
2(19 20)
2(22 23)
1(0)
1(1)
1(2)
1(3)
1(4)
1(5)
1(6)
1(7)
1(8)
1(9)
1(10)
1(11)
1(12)
1(13)
1(14)
1(15)
1(16)
1(17)
1(18)
1(19)
1(20)
1(21)
1(22)
1(23)
)

// featurePointNormals

25
(

19
(
0
16
1
5
3
4
8
9
14
10
15
17
18
23
2
7
11
19
21
)

2(0 16)
2(0 3)
2(1 2)
2(1 5)
2(2 4)
2(3 4)
1(5)
2(6 7)
2(7 11)
2(8 14)
2(8 9)
2(9 10)
2(10 12)
1(11)
1(13)
2(13 18)
2(15 16)
2(15 19)
2(17 23)
2(17 18)
1(19)
2(20 21)
2(21 22)
1(22)
)

// featurePointEdges

25
(

24
(
9
2
11
10
1
19
12
13
20
14
5
3
4
21
15
7
8
23
18
17
22
16
6
0
)

3(0 24 40)
3(9 24 27)
3(10 25 26)
3(1 25 29)
3(11 26 28)
3(2 27 28)
3(19 29 30)
3(12 30 31)
3(13 31 35)
3(4 32 38)
3(3 32 33)
3(5 33 34)
3(14 34 36)
3(20 35 36)
3(21 37 38)
3(15 37 42)
3(6 39 40)
3(16 39 43)
3(8 41 47)
3(7 41 42)
3(22 43 44)
3(17 44 45)
3(18 45 46)
3(23 46 47)
)

// regionEdges

24
(
24
25
26
27
28
29
30
31
32
33
34
35
36
37
38
39
40
41
42
43
44
45
46
47
)



// ************************************************************************* //
