/*--------------------------------*- C++ -*----------------------------------*\
  =========                 |
  \\      /  F ield         | OpenFOAM: The Open Source CFD Toolbox
   \\    /   O peration     | Website:  https://openfoam.org
    \\  /    A nd           | Version:  9
     \\/     M anipulation  |
\*---------------------------------------------------------------------------*/
FoamFile
{
    format      ascii;
    class       extendedFeatureEdgeMesh;
    location    "constant/extendedFeatureEdgeMesh";
    object      walloutside.extendedFeatureEdgeMesh;
}
// * * * * * * * * * * * * * * * * * * * * * * * * * * * * * * * * * * * * * //

// points
4((-2280 -1700 0) (2280 -1700 2580) (-2280 -1700 2580) (2280 -1700 0))
// edges
5((0 1) (1 2) (2 0) (0 3) (3 1))
// concaveStart mixedStart nonFeatureStart
0 0 4
// internalStart flatStart openStart multipleStart
0 0 1 5
// normals
2{(0 -1 0)}
// normal volume types

2
(
0
0
)

// normalDirections

5
(
2(1 -1)
1(1)
1(1)
1(1)
1(1)
)

// edgeNormals

5
(
2(0 1)
1(0)
1(0)
1(1)
1(1)
)

// featurePointNormals

4
(
1(0)
1(0)
1(0)
1(1)
)

// featurePointEdges

4
(
3(0 2 3)
3(0 1 4)
2(1 2)
2(3 4)
)

// regionEdges
4(1 2 3 4)


// ************************************************************************* //
