/*--------------------------------*- C++ -*----------------------------------*\
  =========                 |
  \\      /  F ield         | OpenFOAM: The Open Source CFD Toolbox
   \\    /   O peration     | Website:  https://openfoam.org
    \\  /    A nd           | Version:  9
     \\/     M anipulation  |
\*---------------------------------------------------------------------------*/
FoamFile
{
    format      ascii;
    class       extendedFeatureEdgeMesh;
    location    "constant/extendedFeatureEdgeMesh";
    object      walldoor.extendedFeatureEdgeMesh;
}
// * * * * * * * * * * * * * * * * * * * * * * * * * * * * * * * * * * * * * //

// points
8((2280 -1700 2580) (2280 -1700 0) (2280 390 2100) (2280 1700 2580) (2280 1325 2100) (2280 390 0) (2280 1325 0) (2280 1700 0))
// edges

13
(
(2 0)
(1 2)
(2 3)
(4 3)
(7 4)
(0 1)
(3 0)
(2 4)
(1 5)
(5 2)
(6 7)
(4 6)
(7 3)
)

// concaveStart mixedStart nonFeatureStart
0 0 8
// internalStart flatStart openStart multipleStart
0 0 5 13
// normals
6{(1 0 0)}
// normal volume types

6
(
0
0
0
0
0
0
)

// normalDirections

13
(
2(1 -1)
2(1 -1)
2(1 -1)
2(1 -1)
2(1 -1)
1(1)
1(1)
1(1)
1(1)
1(1)
1(1)
1(1)
1(1)
)

// edgeNormals

13
(
2(0 1)
2(0 3)
2(1 2)
2(2 5)
2(4 5)
1(0)
1(1)
1(2)
1(3)
1(3)
1(4)
1(4)
1(5)
)

// featurePointNormals

8
(
1(0)
1(0)
1(0)
1(1)
1(2)
1(3)
1(4)
1(4)
)

// featurePointEdges

8
(
3(0 5 6)
3(1 5 8)
5(0 1 2 7 9)
4(2 3 6 12)
4(3 4 7 11)
2(8 9)
2(10 11)
3(4 10 12)
)

// regionEdges
8(5 6 7 8 9 10 11 12)


// ************************************************************************* //
