/*--------------------------------*- C++ -*----------------------------------*\
  =========                 |
  \\      /  F ield         | OpenFOAM: The Open Source CFD Toolbox
   \\    /   O peration     | Website:  https://openfoam.org
    \\  /    A nd           | Version:  9
     \\/     M anipulation  |
\*---------------------------------------------------------------------------*/
FoamFile
{
    format      ascii;
    class       extendedFeatureEdgeMesh;
    location    "constant/extendedFeatureEdgeMesh";
    object      wallwindow.extendedFeatureEdgeMesh;
}
// * * * * * * * * * * * * * * * * * * * * * * * * * * * * * * * * * * * * * //

// points
8((-2280 1700 2580) (-2280 1000 800) (-2280 1000 2425) (-2280 1700 0) (-2280 -1000 2425) (-2280 -1700 2580) (-2280 -1000 800) (-2280 -1700 0))
// edges

16
(
(0 1)
(2 0)
(3 1)
(5 2)
(4 5)
(6 5)
(3 6)
(7 6)
(1 2)
(0 3)
(2 4)
(5 0)
(4 6)
(6 1)
(3 7)
(7 5)
)

// concaveStart mixedStart nonFeatureStart
0 0 8
// internalStart flatStart openStart multipleStart
0 0 8 16
// normals
8{(-1 0 0)}
// normal volume types

8
(
0
0
0
0
0
0
0
0
)

// normalDirections

16
(
2(1 -1)
2(1 -1)
2(1 -1)
2(1 -1)
2(1 -1)
2(1 -1)
2(1 -1)
2(1 -1)
1(1)
1(1)
1(1)
1(1)
1(1)
1(1)
1(1)
1(1)
)

// edgeNormals

16
(
2(0 1)
2(0 3)
2(1 5)
2(2 3)
2(2 4)
2(4 7)
2(5 6)
2(6 7)
1(0)
1(1)
1(2)
1(3)
1(4)
1(5)
1(6)
1(7)
)

// featurePointNormals

8
(
1(0)
1(0)
1(0)
1(1)
1(2)
1(2)
1(4)
1(6)
)

// featurePointEdges

8
(
4(0 1 9 11)
4(0 2 8 13)
4(1 3 8 10)
4(2 6 9 14)
3(4 10 12)
5(3 4 5 11 15)
5(5 6 7 12 13)
3(7 14 15)
)

// regionEdges
8(8 9 10 11 12 13 14 15)


// ************************************************************************* //
